# Packages
 &PACKAGES
 useOBCS=.TRUE.,
 useDiagnostics=.TRUE.,
 useRBCS=.TRUE.,
 useMNC=.FALSE.,
 useKL10=.FALSE',
 &
